<NUMBER OF ZONES> 8
<TOTAL OD FLOW> 147000.0
<END OF METADATA>


Origin 1
    1 :      0.0;     2 :    4200.0;     3 :    900.0;     4 :   4200.0;     5 :    3000.0; 
    6 :    750.0;     7 :    1500.0;     8 :    2700.0;     

Origin 	2 
    1 :    4350.0;     2 :      0.0;     3 :    1050.0;     4 :    4500.0;     5 :    4350.0; 
    6 :    2400.0;     7 :    3750.0;     8 :    900.0; 

Origin 	3 
    1 :    2100.0;     2 :    4200.0;     3 :      0.0;     4 :    4350.0;     5 :    3150.0; 
    6 :    450.0;     7 :    3900.0;     8 :    4350.0;     

Origin 	4 
    1 :    3300.0;     2 :    3600.0;     3 :    3450.0;     4 :      0.0;     5 :    3150.0; 
    6 :    1050.0;     7 :    3300.0;     8 :    450.0;    
Origin 	5 
    1 :    1500.0;     2 :    600.0;     3 :    750.0;     4 :    3900.0;     5 :      0.0; 
    6 :    1650.0;     7 :    4350.0;     8 :    450.0;    

Origin 	6 
    1 :    2250.0;     2 :    1950.0;     3 :    3600.0;     4 :    3750.0;     5 :    1200.0; 
    6 :      0.0;     7 :    2250.0;     8 :    3150.0;   

Origin 	7 
    1 :    3300.0;     2 :    3600.0;     3 :    1500.0;     4 :    3300.0;     5 :    3150.0; 
    6 :    1050.0;     7 :      0.0;     8 :   2400.0;     

Origin 	8 
    1 :    4350.0;     2 :    1800.0;     3 :    2850.0;     4 :    1350.0;     5 :    3600.0; 
    6 :    1500.0;     7 :   2550.0;     8 :      0.0; 


